[General]

network = VoDTraffic

warnings = true
num-rngs = 1
sim-time-limit =100s
total-stack = 2MiB # increase if necessary

cmdenv-express-mode = true

# udp app
**.client.numApps = 1
**.client.app[*].typename = "TCPAdaptiveVideoClientApp"
**.client.app[*].localPort = 1000
**.client.app[*].resultFile = "results/results.wav"

**.server.numApps = 1
**.server.app[*].typename = "VoipStreamSender"
**.server.app[0].packetTimeLength = 20ms
**.server.app[0].voipHeaderSize = 4B
**.server.app[0].samplingRate = 8000Hz
**.server.app[0].compressedBitRate = 40000bps
**.server.app[0].voipSilenceThreshold = 100
**.server.app[0].repeatCount = 1
**.server.app[0].traceFileName = "results/VoIPtrace.wav"

**.server.app[0].soundFile = "../../soundFiles/husten.mp3"

**.server.app[0].localPort = 1000
**.server.app[0].destPort = 1000
**.server.app[0].srcAddress = ""
**.server.app[0].destAddress = "client"

## tcp apps
**.host1.numApps = 1
**.host1.app[0].typename = "TcpSessionApp"
**.host1.app[0].active = true
**.host1.app[0].localPort = -1
**.host1.app[0].connectAddress = "host2"
**.host1.app[0].connectPort = 1000
**.host1.app[0].tOpen = 0.2s
**.host1.app[0].tSend = 0.4s
**.host1.app[0].sendBytes = 10000000B
**.host1.app[0].sendScript = ""
**.host1.app[0].tClose = 100s

**.host2.numApps = 1
#**.host2.tcpApp.typename="TcpSinkApp"
**.host2.app[0].typename = "TcpEchoApp"
**.host2.app[0].localPort = 1000
**.host2.app[0].echoFactor = 2.0
**.host2.app[0].echoDelay = 0s

# tcp settings
**.tcp.mss = 1024
**.tcp.advertisedWindow = 14336  # 14*mss
**.tcp.recordStats = true
